Lista9/3Barras21.txt
( TITULO DO CASO
TITU
**** Sistema de  2 barras ****          2Barras
(DADOS ESPEC�FICOS P/ ESTIMA��O DE ESTADOS:
(============================================================
(   0    |    1    |    2    |    3    |    4    |    5    |
(23456789012345678901234567890123456789012345678901234567890
( NB)( NL)(NIP)(NIQ)(NFP)(NFQ)(NMV)(PIP)(PIQ)(PFP)(PFQ)(PMV)(UTR)(PMU)     descri��o: 0-n�o tem medida nem pseudo; 1-tem medida; 2-tem pseudo; 3-tem medida e pseudo
    3    3    1    1    6    6    2    0    0    0    0    0    2    2                               
DBAR
( DADOS DE BARRAS CA PARA FLUXO DE CARGA E ESTIMA��O DE ESTADOS (A PARTIR DA COLUNA 80)
(===============================================================================================================================================
(   0    |    1    |    2    |    3    |    4    |    5    |    6    |    7    |    8    |    9    |   10    |   11    |   12    |   13    |                                                       
(234567890123456789012345678901234567890123456789012345678901234567890123456789012345678901234567890123456789012345678901234567890112345678901
(No) O TB(   nome   )G( V)( A)( Pg)( Qg)( Qn)( Qm)( Bc)( Pl)( Ql)( Sh)(A(Vc)|||TP(  P  )(desP)TQ(  Q  )(desQ)TV(  V  )(desV)(UTR)( T )(PMU)  
   1   2  Bus_1  HV1  1000  0                                                 ( 1 2.32600.0155 1-0.16450.0011 1   10600.0071    1    0    1  
   2   0  Bus_2  HV1  1000                                                    ( 0              0              0                 2    0    2
   3   0  Bus_3  HV1  1000                                                    ( 0              0              1   10200.0068    2    0    2  
9999
DLIN
( DADOS DE LINHAS CA PARA FLUXO DE CARGA E ESTIMA��O DE ESTADOS (A PARTIR DA COLUNA 80)
(=============================================================================================================================================================================================
(   0    |    1    |    2    |    3    |    4    |    5    |    6    |    7    |    8    |    9    |   10    |   11    |   12    |   13    |   14    |   15    |   16    |   17    |   18    |
(234567890123456789012345678901234567890123456789012345678901234567890123456789012345678901234567890123456789012345678901234567890123456789012345678901234567890123456789012345678901234567890
(De) O  (Pa)NcEP ( R% )( X% )(MVAR)(Tap)(Tmn)(Tmx)(Phs)( Bc)(Cn)(Ce)     (k=>m)TP(  P  )(desP)TQ(  Q  )(desQ)(m=>k)TP(  P  )(desP)TQ(  Q  )(desQ)(k=>m)TC( PMU )(desC)(m=>k)TC( PMU )(desC)
   1       2 1   1.93875.91790.0264                                           ( 1 1.88470.0105 1-0.20330.0014       1-1.52760.0102 1 0.27620.0018
   1       3 1   5.402722.3050.0246                                           ( 1 0.75530.0050 1 0.03880.0003       1-0.72770.0049 1 0.02190.0001                          
   2       3 1   5.699417.3880.0173                                           ( 1 0.41490.0028 1 0.01180.0001       1-0.40590.0027 1-0.02110.0001                          
9999
FIM
